<routes>

    <vType id="short_passenger_car" accel="2.6" decel="4.5" sigma="0.5" length="3.5" minGap="2.5" maxSpeed="55" guiShape="passenger"/>

    <!-- Flows define traffic between starts and ends -->
    <!-- 7:00-7:15 -->
    <flow id="f1-1" begin="0" end="900" from="Kalevan_puistotie#38" to="Kalevantie#8" number="18"/>
    <flow id="f2-1" begin="0" end="900" from="Kalevantie#25" to="Lahteenkatu#8" number="105"/>
    <!--<flow id="f3-1" begin="0" end="900" from="Teiskontie#24" to="Hatanpaan_valtatie#31" number="40"/>-->
    <flow id="f4-1" begin="0" end="900" from="Satakunnankatu#12" to="Rautatienkatu#3" number="40"/>
    <flow id="f5-1" begin="0" end="900" from="Kalevan_puistotie#38" to="Sammonkatu#23" number="15"/>
    <flow id="f6-1" begin="0" end="900" from="Teiskontie#1" to="Rautatienkatu#3" number="88"/>
    <flow id="f7-1" begin="0" end="900" from="Sammonkatu#1" to="Hatanpaan_valtatie#38" number="15"/>
    <flow id="f8-1" begin="0" end="900" from="Kalevantie#25" to="Rautatienkatu#3" number="83"/>
    <flow id="f9-1" begin="0" end="900" from="Viinikankatu#2" to="Teiskontie#24" number="83"/>
    <flow id="f10-1" begin="0" end="900" from="Hatanpaan_valtatie#31" to="Sammonkatu#23" number="15"/>
    <flow id="f11-1" begin="0" end="900" from="Viinikankatu#2" to="Kalevan_puistotie#8" number="18"/>
    <flow id="f12-1" begin="0" end="900" from="Teiskontie#1" to="Lahteenkatu#8" number="88"/>
    <flow id="f13-1" begin="0" end="900" from="Sammonkatu#1" to="Viinikankatu#7" number="15"/>

    <!-- 7:15-7:30 -->
    <flow id="f1-2" begin="900" end="1800" from="Kalevan_puistotie#38" to="Kalevantie#8" number="45"/>
    <flow id="f2-2" begin="900" end="1800" from="Kalevantie#25" to="Lahteenkatu#8" number="127"/>
    <!--<flow id="f3-2" begin="900" end="1800" from="Teiskontie#24" to="Hatanpaan_valtatie#31" number="28"/>-->
    <flow id="f4-2" begin="900" end="1800" from="Satakunnankatu#12" to="Rautatienkatu#3" number="28"/>
    <flow id="f5-2" begin="900" end="1800" from="Kalevan_puistotie#38" to="Sammonkatu#23" number="22"/>
    <flow id="f6-2" begin="900" end="1800" from="Teiskontie#1" to="Rautatienkatu#3" number="112"/>
    <flow id="f7-2" begin="900" end="1800" from="Sammonkatu#1" to="Hatanpaan_valtatie#38" number="22"/>
    <flow id="f8-2" begin="900" end="1800" from="Kalevantie#25" to="Rautatienkatu#3" number="127"/>
    <flow id="f9-2" begin="900" end="1800" from="Viinikankatu#2" to="Teiskontie#24" number="132"/>
    <flow id="f10-2" begin="900" end="1800" from="Hatanpaan_valtatie#31" to="Sammonkatu#23" number="22"/>
    <flow id="f11-2" begin="900" end="1800" from="Viinikankatu#2" to="Kalevan_puistotie#8" number="45"/>
    <flow id="f12-2" begin="900" end="1800" from="Teiskontie#1" to="Lahteenkatu#8" number="114"/>
    <flow id="f13-2" begin="900" end="1800" from="Sammonkatu#1" to="Viinikankatu#7" number="22"/>

    <!-- 7:30-7:45 -->
    <flow id="f1-3" begin="1800" end="2700" from="Kalevan_puistotie#38" to="Kalevantie#8" number="50"/>
    <flow id="f2-3" begin="1800" end="2700" from="Kalevantie#25" to="Lahteenkatu#8" number="188"/>
    <!--<flow id="f3-3" begin="1800" end="2700" from="Teiskontie#24" to="Hatanpaan_valtatie#31" number="67"/>-->
    <flow id="f4-3" begin="1800" end="2700" from="Satakunnankatu#12" to="Rautatienkatu#3" number="67"/>
    <flow id="f5-3" begin="1800" end="2700" from="Kalevan_puistotie#38" to="Sammonkatu#23" number="22"/>
    <flow id="f6-3" begin="1800" end="2700" from="Teiskontie#1" to="Rautatienkatu#3" number="130"/>
    <flow id="f7-3" begin="1800" end="2700" from="Sammonkatu#1" to="Hatanpaan_valtatie#38" number="22"/>
    <flow id="f8-3" begin="1800" end="2700" from="Kalevantie#25" to="Rautatienkatu#3" number="173"/>
    <flow id="f9-3" begin="1800" end="2700" from="Viinikankatu#2" to="Teiskontie#24" number="173"/>
    <flow id="f10-3" begin="1800" end="2700" from="Hatanpaan_valtatie#31" to="Sammonkatu#23" number="22"/>
    <flow id="f11-3" begin="1800" end="2700" from="Viinikankatu#2" to="Kalevan_puistotie#8" number="50"/>
    <flow id="f12-3" begin="1800" end="2700" from="Teiskontie#1" to="Lahteenkatu#8" number="130"/>
    <flow id="f13-3" begin="1800" end="2700" from="Sammonkatu#1" to="Viinikankatu#7" number="22"/>

    <!-- 7:45-8:00 -->
    <flow id="f1-4" begin="2700" end="3600" from="Kalevan_puistotie#38" to="Kalevantie#8" number="62"/>
    <flow id="f2-4" begin="2700" end="3600" from="Kalevantie#25" to="Lahteenkatu#8" number="237"/>
    <!--<flow id="f3-4" begin="2700" end="3600" from="Teiskontie#24" to="Hatanpaan_valtatie#31" number="73"/>-->
    <flow id="f4-4" begin="2700" end="3600" from="Satakunnankatu#12" to="Rautatienkatu#3" number="73"/>
    <flow id="f5-4" begin="2700" end="3600" from="Kalevan_puistotie#38" to="Sammonkatu#23" number="50"/>
    <flow id="f6-4" begin="2700" end="3600" from="Teiskontie#1" to="Rautatienkatu#3" number="195"/>
    <flow id="f7-4" begin="2700" end="3600" from="Sammonkatu#1" to="Hatanpaan_valtatie#38" number="50"/>
    <flow id="f8-4" begin="2700" end="3600" from="Kalevantie#25" to="Rautatienkatu#3" number="237"/>
    <flow id="f9-4" begin="2700" end="3600" from="Viinikankatu#2" to="Teiskontie#24" number="332"/>
    <flow id="f10-4" begin="2700" end="3600" from="Hatanpaan_valtatie#31" to="Sammonkatu#23" number="50"/>
    <flow id="f11-4" begin="2700" end="3600" from="Viinikankatu#2" to="Kalevan_puistotie#8" number="62"/>
    <flow id="f12-4" begin="2700" end="3600" from="Teiskontie#1" to="Lahteenkatu#8" number="195"/>
    <flow id="f13-4" begin="2700" end="3600" from="Sammonkatu#1" to="Viinikankatu#7" number="50"/>

    <!-- 8:00-8:15 -->
    <flow id="f1-5" begin="3600" end="4500" from="Kalevan_puistotie#38" to="Kalevantie#8" number="63"/>
    <flow id="f2-5" begin="3600" end="4500" from="Kalevantie#25" to="Lahteenkatu#8" number="342"/>
    <!--<flow id="f3-5" begin="3600" end="4500" from="Teiskontie#24" to="Hatanpaan_valtatie#31" number="63"/>-->
    <flow id="f4-5" begin="3600" end="4500" from="Satakunnankatu#12" to="Rautatienkatu#3" number="63"/>
    <flow id="f5-5" begin="3600" end="4500" from="Kalevan_puistotie#38" to="Sammonkatu#23" number="32"/>
    <flow id="f6-5" begin="3600" end="4500" from="Teiskontie#1" to="Rautatienkatu#3" number="195"/>
    <flow id="f7-5" begin="3600" end="4500" from="Sammonkatu#1" to="Hatanpaan_valtatie#38" number="32"/>
    <flow id="f8-5" begin="3600" end="4500" from="Kalevantie#25" to="Rautatienkatu#3" number="313"/>
    <flow id="f9-5" begin="3600" end="4500" from="Viinikankatu#2" to="Teiskontie#24" number="313"/>
    <flow id="f10-5" begin="3600" end="4500" from="Hatanpaan_valtatie#31" to="Sammonkatu#23" number="32"/>
    <flow id="f11-5" begin="3600" end="4500" from="Viinikankatu#2" to="Kalevan_puistotie#8" number="63"/>
    <flow id="f12-5" begin="3600" end="4500" from="Teiskontie#1" to="Lahteenkatu#8" number="195"/>
    <flow id="f13-5" begin="3600" end="4500" from="Sammonkatu#1" to="Viinikankatu#7" number="32"/>

    <!-- 8:15-8:30 -->
    <flow id="f1-6" begin="4500" end="5400" from="Kalevan_puistotie#38" to="Kalevantie#8" number="67"/>
    <flow id="f2-6" begin="4500" end="5400" from="Kalevantie#25" to="Lahteenkatu#8" number="213"/>
    <!--<flow id="f3-6" begin="4500" end="5400" from="Teiskontie#24" to="Hatanpaan_valtatie#31" number="100"/>-->
    <flow id="f4-6" begin="4500" end="5400" from="Satakunnankatu#12" to="Rautatienkatu#3" number="100"/>
    <flow id="f5-6" begin="4500" end="5400" from="Kalevan_puistotie#38" to="Sammonkatu#23" number="50"/>
    <flow id="f6-6" begin="4500" end="5400" from="Teiskontie#1" to="Rautatienkatu#3" number="173"/>
    <flow id="f7-6" begin="4500" end="5400" from="Sammonkatu#1" to="Hatanpaan_valtatie#38" number="50"/>
    <flow id="f8-6" begin="4500" end="5400" from="Kalevantie#25" to="Rautatienkatu#3" number="213"/>
    <flow id="f9-6" begin="4500" end="5400" from="Viinikankatu#2" to="Teiskontie#24" number="250"/>
    <flow id="f10-6" begin="4500" end="5400" from="Hatanpaan_valtatie#31" to="Sammonkatu#23" number="50"/>
    <flow id="f11-6" begin="4500" end="5400" from="Viinikankatu#2" to="Kalevan_puistotie#8" number="67"/>
    <flow id="f12-6" begin="4500" end="5400" from="Teiskontie#1" to="Lahteenkatu#8" number="173"/>
    <flow id="f13-6" begin="4500" end="5400" from="Sammonkatu#1" to="Viinikankatu#7" number="50"/>

    <!-- 8:30-8:45 -->
    <flow id="f1-7" begin="5400" end="6300" from="Kalevan_puistotie#38" to="Kalevantie#8" number="42"/>
    <flow id="f2-7" begin="5400" end="6300" from="Kalevantie#25" to="Lahteenkatu#8" number="182"/>
    <!--<flow id="f3-7" begin="5400" end="6300" from="Teiskontie#24" to="Hatanpaan_valtatie#31" number="73"/>-->
    <flow id="f4-7" begin="5400" end="6300" from="Satakunnankatu#12" to="Rautatienkatu#3" number="73"/>
    <flow id="f5-7" begin="5400" end="6300" from="Kalevan_puistotie#38" to="Sammonkatu#23" number="42"/>
    <flow id="f6-7" begin="5400" end="6300" from="Teiskontie#1" to="Rautatienkatu#3" number="125"/>
    <flow id="f7-7" begin="5400" end="6300" from="Sammonkatu#1" to="Hatanpaan_valtatie#38" number="42"/>
    <flow id="f8-7" begin="5400" end="6300" from="Kalevantie#25" to="Rautatienkatu#3" number="182"/>
    <flow id="f9-7" begin="5400" end="6300" from="Viinikankatu#2" to="Teiskontie#24" number="237"/>
    <flow id="f10-7" begin="5400" end="6300" from="Hatanpaan_valtatie#31" to="Sammonkatu#23" number="42"/>
    <flow id="f11-7" begin="5400" end="6300" from="Viinikankatu#2" to="Kalevan_puistotie#8" number="42"/>
    <flow id="f12-7" begin="5400" end="6300" from="Teiskontie#1" to="Lahteenkatu#8" number="125"/>
    <flow id="f13-7" begin="5400" end="6300" from="Sammonkatu#1" to="Viinikankatu#7" number="42"/>

    <!-- 8:45-9:00 -->
    <flow id="f1-8" begin="6300" end="7200" from="Kalevan_puistotie#38" to="Kalevantie#8" number="57"/>
    <flow id="f2-8" begin="6300" end="7200" from="Kalevantie#25" to="Lahteenkatu#8" number="235"/>
    <!--<flow id="f3-8" begin="6300" end="7200" from="Teiskontie#24" to="Hatanpaan_valtatie#31" number="87"/>-->
    <flow id="f4-8" begin="6300" end="7200" from="Satakunnankatu#12" to="Rautatienkatu#3" number="87"/>
    <flow id="f5-8" begin="6300" end="7200" from="Kalevan_puistotie#38" to="Sammonkatu#23" number="43"/>
    <flow id="f6-8" begin="6300" end="7200" from="Teiskontie#1" to="Rautatienkatu#3" number="152"/>
    <flow id="f7-8" begin="6300" end="7200" from="Sammonkatu#1" to="Hatanpaan_valtatie#38" number="43"/>
    <flow id="f8-8" begin="6300" end="7200" from="Kalevantie#25" to="Rautatienkatu#3" number="235"/>
    <flow id="f9-8" begin="6300" end="7200" from="Viinikankatu#2" to="Teiskontie#24" number="242"/>
    <flow id="f10-8" begin="6300" end="7200" from="Hatanpaan_valtatie#31" to="Sammonkatu#23" number="43"/>
    <flow id="f11-8" begin="6300" end="7200" from="Viinikankatu#2" to="Kalevan_puistotie#8" number="57"/>
    <flow id="f12-8" begin="6300" end="7200" from="Teiskontie#1" to="Lahteenkatu#8" number="152"/>
    <flow id="f13-8" begin="6300" end="7200" from="Sammonkatu#1" to="Viinikankatu#7" number="43"/>

</routes>
