<?xml version="1.0" encoding="UTF-8"?>

<!-- generated on 2024-11-21 16:19:51.673239 by randomTrips.py v1_21_0+0000-d7b3b481c43
<configuration>
    <net-file value="grid.net.xml"/>
    <output-trip-file value="random.rou.xml"/>
    <end value="100.0"/>
    <period value="1.0"/>
    <binomial value="3"/>
</configuration>
-->

<routes xmlns:xsi="http://www.w3.org/2001/XMLSchema-instance" xsi:noNamespaceSchemaLocation="http://sumo.dlr.de/xsd/routes_file.xsd">
    <trip id="0" depart="0.00" from="A2B2" to="A2A1"/>
    <trip id="1" depart="1.00" from="B1A1" to="A0A1"/>
    <trip id="2" depart="2.00" from="B1B2" to="A0A1"/>
    <trip id="3" depart="2.00" from="B2B1" to="B1C1"/>
    <trip id="4" depart="2.00" from="B2A2" to="C1B1"/>
    <trip id="5" depart="3.00" from="C1B1" to="B2C2"/>
    <trip id="6" depart="3.00" from="C2B2" to="B0B1"/>
    <trip id="7" depart="4.00" from="A1A0" to="C1C0"/>
    <trip id="8" depart="8.00" from="A2A1" to="A2B2"/>
    <trip id="9" depart="8.00" from="A2A1" to="A1A0"/>
    <trip id="10" depart="9.00" from="B2B1" to="B0B1"/>
    <trip id="11" depart="9.00" from="A2B2" to="C2B2"/>
    <trip id="12" depart="10.00" from="C0B0" to="A1A2"/>
    <trip id="13" depart="13.00" from="A0A1" to="B0A0"/>
    <trip id="14" depart="13.00" from="A2A1" to="C2B2"/>
    <trip id="15" depart="14.00" from="B2B1" to="B0C0"/>
    <trip id="16" depart="15.00" from="A2A1" to="B1C1"/>
    <trip id="17" depart="15.00" from="B2A2" to="C1C2"/>
    <trip id="18" depart="16.00" from="C2C1" to="B1B2"/>
    <trip id="19" depart="16.00" from="A0B0" to="A1A0"/>
    <trip id="20" depart="18.00" from="B0C0" to="C2C1"/>
    <trip id="21" depart="19.00" from="C0B0" to="B2C2"/>
    <trip id="22" depart="20.00" from="B2B1" to="A1A0"/>
    <trip id="23" depart="21.00" from="B1B2" to="A1B1"/>
    <trip id="24" depart="22.00" from="B2B1" to="B2A2"/>
    <trip id="25" depart="23.00" from="C0C1" to="B1B2"/>
    <trip id="26" depart="24.00" from="B0A0" to="A0A1"/>
    <trip id="27" depart="25.00" from="A0B0" to="C1C2"/>
    <trip id="28" depart="26.00" from="B1B0" to="A0B0"/>
    <trip id="29" depart="27.00" from="B1B0" to="B1C1"/>
    <trip id="30" depart="27.00" from="C1C0" to="B1A1"/>
    <trip id="31" depart="27.00" from="B1B2" to="C0B0"/>
    <trip id="32" depart="28.00" from="B0A0" to="C2C1"/>
    <trip id="33" depart="29.00" from="A2A1" to="B0B1"/>
    <trip id="34" depart="30.00" from="A2A1" to="A0B0"/>
    <trip id="35" depart="30.00" from="C1C2" to="C1C0"/>
    <trip id="36" depart="31.00" from="A2A1" to="B2C2"/>
    <trip id="37" depart="31.00" from="A1A2" to="C2B2"/>
    <trip id="38" depart="33.00" from="A1A0" to="B1A1"/>
    <trip id="39" depart="35.00" from="B0C0" to="B0B1"/>
    <trip id="40" depart="35.00" from="A1B1" to="B1A1"/>
    <trip id="41" depart="36.00" from="A2A1" to="C2B2"/>
    <trip id="42" depart="37.00" from="C2C1" to="C1C0"/>
    <trip id="43" depart="39.00" from="B1B0" to="A2A1"/>
    <trip id="44" depart="39.00" from="B0C0" to="C2C1"/>
    <trip id="45" depart="40.00" from="C0C1" to="B1A1"/>
    <trip id="46" depart="42.00" from="B0A0" to="C2C1"/>
    <trip id="47" depart="43.00" from="B2A2" to="B1B2"/>
    <trip id="48" depart="44.00" from="C2C1" to="A0B0"/>
    <trip id="49" depart="44.00" from="B2A2" to="B2C2"/>

</routes>
